  Page 1                                    Thu Jun 13 19:34:26 2013

  ******************************************************************
  *                           E P A N E T                          *
  *                   Hydraulic and Water Quality                  *
  *                   Analysis for Pipe Networks                   *
  *                         Version 2.00.12                        *
  ******************************************************************
  
  Input Error 224: no tanks or reservoirs in network.