  Page 1                                    Tue Jul 02 16:58:28 2013

  ******************************************************************
  *                           E P A N E T                          *
  *                   Hydraulic and Water Quality                  *
  *                   Analysis for Pipe Networks                   *
  *                         Version 2.00.12                        *
  ******************************************************************
  
  Analysis begun Tue Jul 02 16:58:28 2013

  Analysis ended Tue Jul 02 16:58:28 2013
