  Page 1                                    Thu Jun 27 20:33:34 2013

  ******************************************************************
  *                           E P A N E T                          *
  *                   Hydraulic and Water Quality                  *
  *                   Analysis for Pipe Networks                   *
  *                         Version 2.00.12                        *
  ******************************************************************
  
  Analysis begun Thu Jun 27 20:33:34 2013

  Analysis ended Thu Jun 27 20:33:34 2013
